testcases/IEEE-14_stressed_2.RAW
 0,    100.00, 33, 0, 0, 60.00       / March 01, 2021 15:51:20; Simulator Version 20; BuildDate 2019_1_29
 08/19/93 UW ARCHIVE           100.0  1962 W IEEE 14 Bus Test Case

    1,'Bus 1       ', 138.0000,3,   1,   1,   1,1.05999994,   0.000000, 1.10000, 0.90000, 1.10000, 0.90000
    2,'Bus 2       ', 138.0000,2,   1,   1,   1,1.04499996,  -4.982553, 1.10000, 0.90000, 1.10000, 0.90000
    3,'Bus 3       ', 138.0000,2,   1,   1,   1,1.00999999, -12.725027, 1.10000, 0.90000, 1.10000, 0.90000
    4,'Bus 4       ', 138.0000,1,   1,   1,   1,1.01767159, -10.312829, 1.10000, 0.90000, 1.10000, 0.90000
    5,'Bus 5       ', 138.0000,1,   1,   1,   1,1.01951456,  -8.773799, 1.10000, 0.90000, 1.10000, 0.90000
    6,'Bus 6       ', 138.0000,2,   1,   1,   1,1.07000005, -14.220869, 1.10000, 0.90000, 1.10000, 0.90000
    7,'Bus 7       ', 138.0000,1,   1,   1,   1,1.06152022, -13.359558, 1.10000, 0.90000, 1.10000, 0.90000
    8,'Bus 8       ', 138.0000,2,   1,   1,   1,1.09000003, -13.359571, 1.10000, 0.90000, 1.10000, 0.90000
    9,'Bus 9       ', 138.0000,1,   1,   1,   1,1.05593276, -14.938457, 1.10000, 0.90000, 1.10000, 0.90000
   10,'Bus 10      ', 138.0000,1,   1,   1,   1,1.05098557, -15.097221, 1.10000, 0.90000, 1.10000, 0.90000
   11,'Bus 11      ', 138.0000,1,   1,   1,   1,1.05690694, -14.790551, 1.10000, 0.90000, 1.10000, 0.90000
   12,'Bus 12      ', 138.0000,1,   1,   1,   1,1.05518913, -15.075512, 1.10000, 0.90000, 1.10000, 0.90000
   13,'Bus 13      ', 138.0000,1,   1,   1,   1,1.05038261, -15.156195, 1.10000, 0.90000, 1.10000, 0.90000
   14,'Bus 14      ', 138.0000,1,   1,   1,   1,1.03553057, -16.033565, 1.10000, 0.90000, 1.10000, 0.90000
0 / END OF BUS DATA, BEGIN LOAD DATA
2,'1',1,1,1,80.290000,46.990000,0.000,0.000,0.000,0.000,1,1,0
3,'1',1,1,1,348.540000,70.300000,0.000,0.000,0.000,0.000,1,1,0
4,'1',1,1,1,176.860000,-14.430000,0.000,0.000,0.000,0.000,1,1,0
5,'1',1,1,1,28.120000,5.920000,0.000,0.000,0.000,0.000,1,1,0
6,'1',1,1,1,41.440000,27.750000,0.000,0.000,0.000,0.000,1,1,0
9,'1',1,1,1,109.150000,61.420000,0.000,0.000,0.000,0.000,1,1,0
10,'1',1,1,1,33.300000,21.460000,0.000,0.000,0.000,0.000,1,1,0
11,'1',1,1,1,12.950000,6.660000,0.000,0.000,0.000,0.000,1,1,0
12,'1',1,1,1,22.570000,5.920000,0.000,0.000,0.000,0.000,1,1,0
13,'1',1,1,1,49.950000,21.460000,0.000,0.000,0.000,0.000,1,1,0
14,'1',1,1,1,55.130000,18.500000,0.000,0.000,0.000,0.000,1,1,0
0 / END OF LOAD DATA, BEGIN FIXED SHUNT DATA
     9,' 1', 1,     0.000,    19.000
0 / END OF FIXED SHUNT DATA, BEGIN GENERATOR DATA
1,'1',859.850400,-61.231300,0.000000,0.000000,1.06000,0,615.000,0.00000,0.23000,0.00000,0.00000,1.00000,1,100.0,10000.000,-10000.000,1,1.0000,0,1.0000,0,1.0000,0,1.0000,0,1.0000
2,'1',148.000000,161.157200,185.000000,-148.000000,1.04500,0,60.000,0.00310,0.13000,0.00000,0.00000,1.00000,1,100.0,10000.000,-10000.000,1,1.0000,0,1.0000,0,1.0000,0,1.0000,0,1.0000
3,'1',0.000000,92.777500,148.000000,0.000000,1.01000,0,60.000,0.00310,0.13000,0.00000,0.00000,1.00000,1,100.0,10000.000,-10000.000,1,1.0000,0,1.0000,0,1.0000,0,1.0000,0,1.0000
6,'1',0.000000,47.101000,88.800000,-22.200000,1.07000,0,25.000,0.00140,0.12000,0.00000,0.00000,1.00000,1,100.0,10000.000,-10000.000,1,1.0000,0,1.0000,0,1.0000,0,1.0000,0,1.0000
8,'1',0.000000,65.205100,88.800000,-22.200000,1.09000,0,25.000,0.00140,0.12000,0.00000,0.00000,1.00000,1,100.0,10000.000,-10000.000,1,1.0000,0,1.0000,0,1.0000,0,1.0000,0,1.0000
0 / END OF GENERATOR DATA, BEGIN BRANCH DATA
     1,     2,'1 ',1.93800E-2,5.91700E-2,5.28000E-2,   0.00,   0.00,   0.00,  0.00000,  0.00000,  0.00000,  0.00000,1,1,   0.00,   1,1.0000,   0,1.0000,   0,1.0000,   0,1.0000
     1,     5,'1 ',5.40300E-2,2.23040E-1,4.92000E-2,   0.00,   0.00,   0.00,  0.00000,  0.00000,  0.00000,  0.00000,1,1,   0.00,   1,1.0000,   0,1.0000,   0,1.0000,   0,1.0000
     2,     3,'1 ',4.69900E-2,1.97970E-1,4.38000E-2,   0.00,   0.00,   0.00,  0.00000,  0.00000,  0.00000,  0.00000,1,1,   0.00,   1,1.0000,   0,1.0000,   0,1.0000,   0,1.0000
     2,     4,'1 ',5.81100E-2,1.76320E-1,3.40000E-2,   0.00,   0.00,   0.00,  0.00000,  0.00000,  0.00000,  0.00000,1,1,   0.00,   1,1.0000,   0,1.0000,   0,1.0000,   0,1.0000
     2,     5,'1 ',5.69500E-2,1.73880E-1,3.46000E-2,   0.00,   0.00,   0.00,  0.00000,  0.00000,  0.00000,  0.00000,1,1,   0.00,   1,1.0000,   0,1.0000,   0,1.0000,   0,1.0000
     3,     4,'1 ',6.70100E-2,1.71030E-1,1.28000E-2,   0.00,   0.00,   0.00,  0.00000,  0.00000,  0.00000,  0.00000,1,1,   0.00,   1,1.0000,   0,1.0000,   0,1.0000,   0,1.0000
     4,     5,'1 ',1.33500E-2,4.21100E-2,0.00000E0,   0.00,   0.00,   0.00,  0.00000,  0.00000,  0.00000,  0.00000,1,1,   0.00,   1,1.0000,   0,1.0000,   0,1.0000,   0,1.0000
     6,    11,'1 ',9.49800E-2,1.98900E-1,0.00000E0,   0.00,   0.00,   0.00,  0.00000,  0.00000,  0.00000,  0.00000,1,1,   0.00,   1,1.0000,   0,1.0000,   0,1.0000,   0,1.0000
     6,    12,'1 ',1.22910E-1,2.55810E-1,0.00000E0,   0.00,   0.00,   0.00,  0.00000,  0.00000,  0.00000,  0.00000,1,1,   0.00,   1,1.0000,   0,1.0000,   0,1.0000,   0,1.0000
     6,    13,'1 ',6.61500E-2,1.30270E-1,0.00000E0,   0.00,   0.00,   0.00,  0.00000,  0.00000,  0.00000,  0.00000,1,1,   0.00,   1,1.0000,   0,1.0000,   0,1.0000,   0,1.0000
     7,     8,'1 ',1.00000E-7,1.76150E-1,0.00000E0,   0.00,   0.00,   0.00,  0.00000,  0.00000,  0.00000,  0.00000,1,1,   0.00,   1,1.0000,   0,1.0000,   0,1.0000,   0,1.0000
     7,     9,'1 ',1.00000E-7,1.10010E-1,0.00000E0,   0.00,   0.00,   0.00,  0.00000,  0.00000,  0.00000,  0.00000,1,1,   0.00,   1,1.0000,   0,1.0000,   0,1.0000,   0,1.0000
     9,    10,'1 ',3.18100E-2,8.45000E-2,0.00000E0,   0.00,   0.00,   0.00,  0.00000,  0.00000,  0.00000,  0.00000,1,1,   0.00,   1,1.0000,   0,1.0000,   0,1.0000,   0,1.0000
     9,    14,'1 ',1.27110E-1,2.70380E-1,0.00000E0,   0.00,   0.00,   0.00,  0.00000,  0.00000,  0.00000,  0.00000,1,1,   0.00,   1,1.0000,   0,1.0000,   0,1.0000,   0,1.0000
    10,    11,'1 ',8.20500E-2,1.92070E-1,0.00000E0,   0.00,   0.00,   0.00,  0.00000,  0.00000,  0.00000,  0.00000,1,1,   0.00,   1,1.0000,   0,1.0000,   0,1.0000,   0,1.0000
    12,    13,'1 ',2.20920E-1,1.99880E-1,0.00000E0,   0.00,   0.00,   0.00,  0.00000,  0.00000,  0.00000,  0.00000,1,1,   0.00,   1,1.0000,   0,1.0000,   0,1.0000,   0,1.0000
    13,    14,'1 ',1.70930E-1,3.48020E-1,0.00000E0,   0.00,   0.00,   0.00,  0.00000,  0.00000,  0.00000,  0.00000,1,1,   0.00,   1,1.0000,   0,1.0000,   0,1.0000,   0,1.0000
0 / END OF BRANCH DATA, BEGIN TRANSFORMER DATA
     4,     7,    0,'1 ',1,1,1,0.00000E0,0.00000E0,2,'            ',1,   1,1.0000,   0,1.0000,   0,1.0000,   0,1.0000,'            '
1.00000E-7,2.09120E-1, 100.00
0.978000,138.000,   0.000,   0.00,   0.00,   0.00,0,     0,1.500000,0.510000,1.500000,0.510000,159, 0, 0.00000, 0.00000,  0.000
1.000000,138.000
     4,     9,    0,'1 ',1,1,1,0.00000E0,0.00000E0,2,'            ',1,   1,1.0000,   0,1.0000,   0,1.0000,   0,1.0000,'            '
1.00000E-7,5.56180E-1, 100.00
0.969000,138.000,   0.000,   0.00,   0.00,   0.00,0,     0,1.500000,0.510000,1.500000,0.510000,159, 0, 0.00000, 0.00000,  0.000
1.000000,138.000
     5,     6,    0,'1 ',1,1,1,0.00000E0,0.00000E0,2,'            ',1,   1,1.0000,   0,1.0000,   0,1.0000,   0,1.0000,'            '
1.00000E-7,2.52020E-1, 100.00
0.932000,138.000,   0.000,   0.00,   0.00,   0.00,0,     0,1.500000,0.510000,1.500000,0.510000,159, 0, 0.00000, 0.00000,  0.000
1.000000,138.000
0 / END OF TRANSFORMER DATA, BEGIN AREA DATA
   1,    2,     0.000,   999.990,'IEEE14      '
0 / END OF AREA DATA, BEGIN TWO-TERMINAL DC DATA
0 / END OF TWO-TERMINAL DC DATA, BEGIN VOLTAGE SOURCE CONVERTER DATA
0 / END OF VOLTAGE SOURCE CONVERTER DATA, BEGIN IMPEDANCE CORRECTION DATA
0 / END OF IMPEDANCE CORRECTION DATA, BEGIN MULTI-TERMINAL DC DATA
0 / END OF MULTI-TERMINAL DC DATA, BEGIN MULTI-SECTION LINE DATA
0 / END OF MULTI-SECTION LINE DATA, BEGIN ZONE DATA
   1,'IEEE 14 '
0 / END OF ZONE DATA, BEGIN INTER-AREA TRANSFER DATA
0 / END OF INTER-AREA TRANSFER DATA, BEGIN OWNER DATA
    1,'1'
0 / END OF OWNER DATA, BEGIN FACTS CONTROL DEVICE DATA
0 / END OF FACTS CONTROL DEVICE DATA, BEGIN SWITCHED SHUNT DATA
0 /END OF SWITCHED SHUNT DATA, BEGIN GNE DEVICE DATA
0 /END OF GNE DEVICE DATA
Q
